Version 4
SHEET 1 1280 720
SYMBOL voltage 32 144 R0
SYMATTR InstName V1
SYMATTR Value AC 1 0
SYMBOL res 80 48 R90
SYMATTR InstName Rs1
SYMATTR Value 50
SYMBOL ind 96 48 R90
SYMATTR InstName L1
SYMATTR Value 4.7n
SYMBOL cap 224 80 R0
SYMATTR InstName C2
SYMATTR Value 5.6p
SYMBOL ind 288 48 R90
SYMATTR InstName L3
SYMATTR Value 15n
SYMBOL cap 416 80 R0
SYMATTR InstName C4
SYMATTR Value 5.6p
SYMBOL ind 480 48 R90
SYMATTR InstName L5
SYMATTR Value 4.7n
SYMBOL res 1248 48 R0
SYMATTR InstName RL1
SYMATTR Value 50
TEXT 96 336 Left 2 !.ac dec 200 1000000.0 5000000000.0
FLAG 96 144 p1
FLAG 1328 144 p2
FLAG 1328 240 0
