Version 4
SHEET 1 1280 720
SYMBOL voltage 32 144 R0
SYMATTR InstName V1
SYMATTR Value AC 1 0
SYMBOL res 80 48 R90
SYMATTR InstName Rs1
SYMATTR Value 50
SYMBOL ind 96 48 R90
SYMATTR InstName L1
SYMATTR Value 6.65n
SYMBOL ind 224 80 R0
SYMATTR InstName L2
SYMATTR Value 6.49n
SYMBOL cap 224 160 R0
SYMATTR InstName C2
SYMATTR Value 1.3p
SYMBOL ind 288 48 R90
SYMATTR InstName L3
SYMATTR Value 634p
SYMBOL ind 416 80 R0
SYMATTR InstName L4
SYMATTR Value 8.06n
SYMBOL cap 416 160 R0
SYMATTR InstName C4
SYMATTR Value 1.69p
SYMBOL ind 480 48 R90
SYMATTR InstName L5
SYMATTR Value 8.45n
SYMBOL ind 608 80 R0
SYMATTR InstName L6
SYMATTR Value 17.4n
SYMBOL cap 608 160 R0
SYMATTR InstName C6
SYMATTR Value 1.33p
SYMBOL ind 672 48 R90
SYMATTR InstName L7
SYMATTR Value 10.5n
SYMBOL ind 800 80 R0
SYMATTR InstName L8
SYMATTR Value 1.07n
SYMBOL cap 800 160 R0
SYMATTR InstName C8
SYMATTR Value 4.22p
SYMBOL ind 864 48 R90
SYMATTR InstName L9
SYMATTR Value 9.09n
SYMBOL res 2784 48 R0
SYMATTR InstName RL1
SYMATTR Value 50
TEXT 96 336 Left 2 !.ac dec 200 10000000.0 5000000000.0
FLAG 96 144 p1
FLAG 2864 144 p2
FLAG 2864 240 0
